program/case30mikrogridmaswince.m
function mpc = case30
%CASE30    Power flow data for 30 bus, 6 generator case.
%   Please see CASEFORMAT for details on the case file format.
%
%   Based on data from ...
%     Alsac, O. & Stott, B., "Optimal Load Flow with Steady State Security",
%     IEEE Transactions on Power Apparatus and Systems, Vol. PAS 93, No. 3,
%     1974, pp. 745-751.
%   ... with branch parameters rounded to nearest 0.01, shunt values divided
%   by 100 and shunt on bus 10 moved to bus 5, load at bus 5 zeroed out.
%   Generator locations, costs and limits and bus areas were taken from ...
%     Ferrero, R.W., Shahidehpour, S.M., Ramesh, V.C., "Transaction analysis
%     in deregulated power systems using game theory", IEEE Transactions on
%     Power Systems, Vol. 12, No. 3, Aug 1997, pp. 1340-1347.
%   Generator Q limits were derived from Alsac & Stott, using their Pmax
%   capacities. V limits and line |S| limits taken from Alsac & Stott.

%   MATPOWER

%% MATPOWER Case Format : Version 2
mpc.version = '2';

%%-----  Power Flow Data  -----%%
%% system MVA base
mpc.baseMVA = 100;

%% bus data
%	bus_i	type	Pd	Qd	Gs	Bs	area	Vm	Va	baseKV	zone	Vmax	Vmin
mpc.bus = [
	1	3	0         0       0	0       1	1	0	135	1	1.05	0.95;
	2	2	0.044485  12.7    0	0       1	1	0	135	1	1.1     0.95;
	3	1	0.01312   1.2     0	0       1	1	0	135	1	1.05	0.95;
	4	2	0.01558   1.6     0	0       1	1	0	135	1	1.05	0.95;
	5	1	0         0       0	0.19	1	1	0	135	1	1.05	0.95;
	6	1	0         0       0	0       1	1	0	135	1	1.05	0.95;
	7	2	0.04674   10.9    0	0       1	1	0	135	1	1.05	0.95;
	8	1   0.0615    30      0	0       1	1	0	135	1	1.05	0.95;
	9	1	0         0       0	0       1	1	0	135	1	1.05	0.95;
	10	2	0.01189   2       0	0       3	1	0	135	1	1.05	0.95;
	11	1	0         0       0	0       1	1	0	135	1	1.05	0.95;
	12	1	0.02296   7.5     0	0       2	1	0	135	1	1.05	0.95;
	13	2	0         0       0	0       2	1	0	135	1	1.1     0.95;
	14	1	0.01271   1.6     0	0       2	1	0	135	1	1.05	0.95;
	15	2	0.01681   2.5     0	0       2	1	0	135	1	1.05	0.95;
	16	1	0.007585  1.8     0	0       2	1	0	135	1	1.05	0.95;
	17	1	0.01845   5.8     0	0       2	1	0	135	1	1.05	0.95;
	18	1	0.01066   0.9     0	0       2	1	0	135	1	1.05	0.95;
	19	1	0.019475  3.4     0	0       2	1	0	135	1	1.05	0.95;
	20	1	0.01066   0.7 	  0	0       2	1	0	135	1	1.05	0.95;
	21	1	0.035875  11.2	  0	0       3	1	0	135	1	1.05	0.95;
	22	2	0         0       0	0       3	1	0	135	1	1.1     0.95;
	23	2	0.00861   1.6     0	0       2	1	0	135	1	1.1     0.95;
	24	2	0.017835  6.7     0	0.04	3	1	0	135	1	1.05	0.95;
	25	1	0         0       0	0       3	1	0	135	1	1.05	0.95;
	26	2	0.007175  2.3     0	0       3	1	0	135	1	1.05	0.95;
	27	2	0         0       0	0       3	1	0	135	1	1.1     0.95;
	28	1	0         0       0	0       1	1	0	135	1	1.05	0.95;
	29	1	0.00902   0.9     0	0       3	1	0	135	1	1.05	0.95;
	30	2	0.02173   1.9     0	0       3	1	0	135	1	1.05	0.95;
];

%% generator data fix
% 	bus	Pg	Qg	Qmax	Qmin	Vg	mBase	status	Pmax	Pmin	Pc1	Pc2	Qc1min	Qc1max	Qc2min	Qc2max	ramp_agc	ramp_10	ramp_30	ramp_q	apf

batt_bus = evalin('base','currentbatt');

Pmax = [batt_bus(1) batt_bus(2) batt_bus(3) batt_bus(4)].*180*72/(250*10^6);
Pmin = -[batt_bus(1) batt_bus(2) batt_bus(3) batt_bus(4)].*125*72/(250*10^6);

mpc.gen = [
	1	23.54	0	150    -20	1	100	1	0.100	0	    0	0	0	0	0	0	0	0.012	0	0	0;  % grid
	2	60.97	0	60     -20	1	100	1	0.065	0.00	0	0	0	0	0	0	0	0.012	0	0	0;  % mikroturbin
    7   19.2	0	40     -10	1	100	1	Pmax(1)   Pmin(1) 0	0	0	0	0	0	0	999     0	0	0;  % baterai
    7   19.2	0	40     -10	1	100	1	00      0	    0	0	0	0	0	0	0	999     0	0	0;  % PV
    15  19.2	0	40     -10	1	100	1	Pmax(2)   Pmin(2)	0	0	0	0	0	0	0	999     0	0	0;  % baterai
    13	37      0	44.7   -15	1	100	1	0.086	0.0745	0	0	0	0	0	0	0	0.008	0	0	0;  % diesel
    15  18.2	0	40     -10	1	100	1	00      0	    0	0	0	0	0	0	0	999     0	0	0;  % PV
	batt_bus(1,5)	21.59	0	62.5   -15	1	100	1	Pmax(3)   Pmin(3) 0	0	0	0	0	0	0	999     0	0	0;  % baterai
	22	21.59	0	62.5   -15	1	100	1	0.097   0.052   0	0	0	0	0	0	0	0.008	0	0	0;  % diesel    
    23	19.2	0	40     -10	1	100	1	0.082   0.056	0	0	0	0	0	0	0	0.008	0	0	0;  % diesel
    batt_bus(1,6)  19.2	0	40     -10	1	100	1	Pmax(4)   Pmin(4)	0	0	0	0	0	0	0	999     0	0	0;  % baterai
    26  19.2	0	40     -10	1	100	1	00  	0	    0	0	0	0	0	0	0	999     0	0	0;  % PV
	27	26.91	0	48.7   -15	1	100	1	0.030	0   	0	0	0	0	0	0	0	0.012	0	0	0;  % mikroturbin
%     batt_bus(2,5)  19.2	0	40     -10	1	100	1	0.5184  -0.36	0	0	0	0	0	0	0	999     0	0	0;  % baterai
	];

%% generator data - validasi acak bus
% mpc.gen = [
% 	1	23.54	0	150    -20	1	100	1	0.100	0	    0	0	0	0	0	0	0	0.012	0	0	0;  % grid
% 	2	60.97	0	60     -20	1	100	1	0.065	0.00	0	0	0	0	0	0	0	0.012	0	0	0;  % mikroturbin
%     4   19.2	0	40     -10	1	100	1	0.5184   -0.36 0	0	0	0	0	0	0	999     0	0	0;  % baterai
%     7   19.2	0	40     -10	1	100	1	00      0	    0	0	0	0	0	0	0	999     0	0	0;  % PV
%     22  19.2	0	40     -10	1	100	1	0.5184  -0.36	0	0	0	0	0	0	0	999     0	0	0;  % baterai
%     13	37      0	44.7   -15	1	100	1	0.086	0.0745	0	0	0	0	0	0	0	0.008	0	0	0;  % diesel
%     15  18.2	0	40     -10	1	100	1	00      0	    0	0	0	0	0	0	0	999     0	0	0;  % PV
% 	24	21.59	0	62.5   -15	1	100	1	0.5184 -0.36 0	0	0	0	0	0	0	999     0	0	0;  % baterai
% 	22	21.59	0	62.5   -15	1	100	1	0.097   0.052   0	0	0	0	0	0	0	0.008	0	0	0;  % diesel    
%     23	19.2	0	40     -10	1	100	1	0.082   0.056	0	0	0	0	0	0	0	0.008	0	0	0;  % diesel
%     30  19.2	0	40     -10	1	100	1	0.5184  -0.36	0	0	0	0	0	0	0	999     0	0	0;  % baterai
%     26  19.2	0	40     -10	1	100	1	00  	0	    0	0	0	0	0	0	0	999     0	0	0;  % PV
% 	27	26.91	0	48.7   -15	1	100	1	0.030	0   	0	0	0	0	0	0	0	0.012	0	0	0;  % mikroturbin
%    % 10  19.2	0	40     -10	1	100	1	0.5184  -0.36	0	0	0	0	0	0	0	999     0	0	0;  % baterai
% 	];

% mpc.gen = [
% 	1	23.54	0	150    -20	1	100	1	0.100	0	    0	0	0	0	0	0	0	0.012	0	0	0;  % grid
% 	2	60.97	0	60     -20	1	100	1	0.065	0.00	0	0	0	0	0	0	0	0.012	0	0	0;  % mikroturbin
%     4   19.2	0	40     -10	1	100	1	0.5184   -0.360 0	0	0	0	0	0	0	999     0	0	0;  % baterai
%     7   19.2	0	40     -10	1	100	1	00      0	    0	0	0	0	0	0	0	999     0	0	0;  % PV
%     10  19.2	0	40     -10	1	100	1	0.5184  -0.36	0	0	0	0	0	0	0	999     0	0	0;  % baterai
%     13	37      0	44.7   -15	1	100	1	0.086	0.0745	0	0	0	0	0	0	0	0.008	0	0	0;  % diesel
%     15  18.2	0	40     -10	1	100	1	00      0	    0	0	0	0	0	0	0	999     0	0	0;  % PV
% 	22	21.59	0	62.5   -15	1	100	1	0.5184 -0.36 0	0	0	0	0	0	0	999     0	0	0;  % baterai
% 	22	21.59	0	62.5   -15	1	100	1	0.097   0.052   0	0	0	0	0	0	0	0.008	0	0	0;  % diesel    
%     23	19.2	0	40     -10	1	100	1	0.082   0.056	0	0	0	0	0	0	0	0.008	0	0	0;  % diesel
%     24  19.2	0	40     -10	1	100	1	0.5184  -0.36	0	0	0	0	0	0	0	999     0	0	0;  % baterai
%     26  19.2	0	40     -10	1	100	1	00  	0	    0	0	0	0	0	0	0	999     0	0	0;  % PV
% 	27	26.91	0	48.7   -15	1	100	1	0.030	0   	0	0	0	0	0	0	0	0.012	0	0	0;  % mikroturbin
%     30  19.2	0	40     -10	1	100	1	0.5184  -0.36	0	0	0	0	0	0	0	999     0	0	0;  % baterai
% 	];
%% branch data
%	fbus	tbus	r	x	b	rateA	rateB	rateC	ratio	angle	status	angmin	angmax
mpc.branch = [
	1	2	0.002	0.06	0.03	0.130	0.130	0.130	0	0	1	-360	360;
	1	3	0.005	0.19	0.02	0.032	0.130	0.130	0	0	1	-360	360;
	2	4	0.006	0.17	0.02	0.016	0.065	0.065	0	0	1	-360	360;
	3	4	0.001	0.04	0       0.032	0.130	0.130	0	0	1	-360	360;
	2	5	0.005	0.2     0.02	0.032	0.130	0.130	0	0	1	-360	360;
	2	6	0.006	0.18	1.02	0.032	0.065	0.065	0	0	1	-360	360;
	4	6	0.001	0.04	0       0.090	0.090	0.090	0	0	1	-360	360;
	5	7	0.005	0.12	0.01	0.032	0.070	0.070	0	0	1	-360	360;
	6	7	0.003	0.08	0.01	0.070	0.130	0.130	0	0	1	-360	360;
	6	8	0.001	0.04	0       0.090	0.032	0.032	0	0	1	-360	360;
	6	9	0       0.21	0       0.065	0.065	0.065	0	0	1	-360	360;
	6	10	0       0.56	0       0.032	0.032	0.032	0	0	1	-360	360;
	9	11	0       0.21	0       0.016	0.065	0.065	0	0	1	-360	360;
	9	10	0       0.11	0       0.065	0.065	0.065	0	0	1	-360	360;
	4	12	0       0.26	0       0.070	0.065	0.065	0	0	1	-360	360;
	12	13	0       0.14	0       0.090	0.065	0.065	0	0	1	-360	360;
	12	14	0.012	0.26	0       0.016	0.032	0.032	0	0	1	-360	360;
	12	15	0.007	0.13	0       0.065	0.032	0.032	0	0	1	-360	360;
	12	16	0.009	0.2     0       0.032	0.032	0.032	0	0	1	-360	360;
	14	15	0.022	0.2     0       0.032	0.016	0.016	0	0	1	-360	360;
	16	17	0.008	0.19	0       0.016	0.016	0.016	0	0	1	-360	360;
	15	18	0.011	0.22	0       0.070	0.016	0.016	0	0	1	-360	360;
	18	19	0.006	0.13	0       0.065	0.016	0.016	0	0	1	-360	360;
	19	20	0.003	0.07	0       0.016	0.032	0.032	0	0	1	-360	360;
	10	20	0.009	0.21	0       0.032	0.032	0.032	0	0	1	-360	360;
	10	17	0.003	0.08	0       0.065	0.032	0.032	0	0	1	-360	360;
	10	21	0.003	0.07	0       0.065	0.032	0.032	0	0	1	-360	360;
	10	22	0.007	0.15	0       0.065	0.032	0.032	0	0	1	-360	360;
	21	22	0.001	0.02	0       0.090	0.032	0.032	0	0	1	-360	360;
	15	23	0.01     0.2    0       0.090	0.016	0.016	0	0	1	-360	360;
	22	24	0.012	0.18	0       0.032	0.016	0.016	0	0	1	-360	360;
	23	24	0.013	0.27	0       0.070	0.016	0.016	0	0	1	-360	360;
	24	25	0.019	0.33	0       0.065	0.016	0.016	0	0	1	-360	360;
	25	26	0.025	0.38	0       0.065	0.016	0.016	0	0	1	-360	360;
	25	27	0.011	0.21	0       0.065	0.016	0.016	0	0	1	-360	360;
	28	27	0       0.4     0       0.016	0.065	0.065	0	0	1	-360	360;
	27	29	0.0022	0.42	0       0.032	0.016	0.016	0	0	1	-360	360;
	27	30	0.0032	0.6     0       0.032	0.016	0.016	0	0	1	-360	360;
	29	30	0.0024	0.45	0       0.032	0.016	0.016	0	0	1	-360	360;
	8	28	0.0006	0.2     0.02	0.016	0.032	0.032	0	0	1	-360	360;
	6	28	0.0002	0.06	0.01	0.016	0.032	0.032	0	0	1	-360	360;
];

% mpc.branch = [
% 	1	2	0.02	0.06	0.03	130	130	130	0	0	1	-360	360;
% 	1	3	0.05	0.19	0.02	130	130	130	0	0	1	-360	360;
% 	2	4	0.06	0.17	0.02	65	65	65	0	0	1	-360	360;
% 	3	4	0.01	0.04	0       130	130	130	0	0	1	-360	360;
% 	2	5	0.05	0.2     0.02	130	130	130	0	0	1	-360	360;
% 	2	6	0.06	0.18	0.02	65	65	65	0	0	1	-360	360;
% 	4	6	0.01	0.04	0       90	90	90	0	0	1	-360	360;
% 	5	7	0.05	0.12	0.01	70	70	70	0	0	1	-360	360;
% 	6	7	0.03	0.08	0.01	130	130	130	0	0	1	-360	360;
% 	6	8	0.01	0.04	0       32	32	32	0	0	1	-360	360;
% 	6	9	0       0.21	0       65	65	65	0	0	1	-360	360;
% 	6	10	0       0.56	0       32	32	32	0	0	1	-360	360;
% 	9	11	0       0.21	0       65	65	65	0	0	1	-360	360;
% 	9	10	0       0.11	0       65	65	65	0	0	1	-360	360;
% 	4	12	0       0.26	0       65	65	65	0	0	1	-360	360;
% 	12	13	0       0.14	0       65	65	65	0	0	1	-360	360;
% 	12	14	0.12	0.26	0       32	32	32	0	0	1	-360	360;
% 	12	15	0.07	0.13	0       32	32	32	0	0	1	-360	360;
% 	12	16	0.09	0.2     0       32	32	32	0	0	1	-360	360;
% 	14	15	0.22	0.2     0       16	16	16	0	0	1	-360	360;
% 	16	17	0.08	0.19	0       16	16	16	0	0	1	-360	360;
% 	15	18	0.11	0.22	0       16	16	16	0	0	1	-360	360;
% 	18	19	0.06	0.13	0       16	16	16	0	0	1	-360	360;
% 	19	20	0.03	0.07	0       32	32	32	0	0	1	-360	360;
% 	10	20	0.09	0.21	0       32	32	32	0	0	1	-360	360;
% 	10	17	0.03	0.08	0       32	32	32	0	0	1	-360	360;
% 	10	21	0.03	0.07	0       32	32	32	0	0	1	-360	360;
% 	10	22	0.07	0.15	0       32	32	32	0	0	1	-360	360;
% 	21	22	0.01	0.02	0       32	32	32	0	0	1	-360	360;
% 	15	23	0.1     0.2     0       16	16	16	0	0	1	-360	360;
% 	22	24	0.12	0.18	0       16	16	16	0	0	1	-360	360;
% 	23	24	0.13	0.27	0       16	16	16	0	0	1	-360	360;
% 	24	25	0.19	0.33	0       16	16	16	0	0	1	-360	360;
% 	25	26	0.25	0.38	0       16	16	16	0	0	1	-360	360;
% 	25	27	0.11	0.21	0       16	16	16	0	0	1	-360	360;
% 	28	27	0       0.4     0       65	65	65	0	0	1	-360	360;
% 	27	29	0.22	0.42	0       16	16	16	0	0	1	-360	360;
% 	27	30	0.32	0.6     0       16	16	16	0	0	1	-360	360;
% 	29	30	0.24	0.45	0       16	16	16	0	0	1	-360	360;
% 	8	28	0.06	0.2     0.02	32	32	32	0	0	1	-360	360;
% 	6	28	0.02	0.06	0.01	32	32	32	0	0	1	-360	360;
% ];
% 
% mpc.branch(:,6)= 0.13

%% -----  OPF Data  -----%%
%%-generator cost data
%	1	startup	shutdown	n	x1	y1	...	xn	yn
%	2	startup	shutdown	n	c(n-1)	...	c0

%objektif function lifetime battery
% mpc.gencost = [
% 	2	0	0	3	0.0         0.00     0;  % 1 grid
% 	2	0	0	3	0.0     	0.00     0;  % 2 mikroturbin
% 	2	0	0	3	1.0         0.00     0;  % 3 baterai 
% 	2	0	0	3	0.0         0.00     0;  % 4 PV
% 	2	0	0	3   1.0         0.00     0;  % 5 baterai
% 	2	0	0	3	0.0         0.00     0;  % 6 diesel
% 	2	0	0	3	0.0         0.00     0;  % 7 pv
% 	2	0	0	3	1.0         0.00     0;  % 8 baterai
%     2	0	0	3	0.0         0.00     0;  % 9 mt tambahan
% 	2	0	0	3	0.0         0.00     0;  % 10 diesel
% 	2	0	0	3	1.0         0.0      0;  % 11 baterai
% 	2	0	0	3	0.0         0.00     0;  % 12 pv
% 	2	0	0	3	0.0         0.00     0;  % 13 mikroturbin
% 	2	0	0	3	1.0         0.000    0;  % 14 baterai  
% ];

% fungsi biaya /mw normalisasi 10^6
 mpc.gencost = [                                                            %kasus 2 
	2	0	0	3	0.00            0.094*10^3         0;  % 1 grid
	2	0	0	3	0.0425*10^6	    0.12*10^3      2.13;  % 2 mikroturbin ///////
	2	0	0	3	1.0*10^6        0.0*10^3          0;  % 3 baterai 
	2	0	0	3	0.0             0.0               0;  % 4 PV
	2	0	0	3   1.0*10^6        0.0*10^3          0;  % 5 baterai
	2	0	0	3	0.11*10^6       8*10^3         1.52;  % 6 diesel ////////////
	2	0	0	3	0.0             0.0               0;  % 7 PV
	2	0	0	3	1.0*10^6        0.0*10^3          0;  % 8 baterai
    2	0	0	3	0.0945*10^6     3*10^3         1.71;  % 9 diesel ////////////
	2	0	0	3	0.0915*10^6     1.2*10^3       1.45;  % 10 diesel////////////
	2	0	0	3	1.0*10^6        0.0*10^3          0;  % 11 baterai
	2	0	0	3	0.0             0.0               0;  % 12 PV
	2	0	0	3	0.049*10^6      0.08*10^3       1.2;  % 13 mikroturbin
% 	2	0	0	3	1.0*10^6        0.0*10^3          0;  % 14 baterai  
];

% mpc.gencost = [                                                            %kasus 1
% 	2	0	0	3	0.00            0.11*10^3     0;  % 1 grid
% 	2	0	0	3	0.0425*10^6	    0.12*10^3     2.13;  % 2 mikroturbin ///////
% 	2	0	0	3	0.0             0.0           0;  % 3 baterai 
% 	2	0	0	3	0.0             0.0           0;  % 4 PV
% 	2	0	0	3   0.0             0.0           0;  % 5 baterai
% 	2	0	0	3	0.11*10^6       8*10^3        1.52;  % 6 diesel ////////////
% 	2	0	0	3	0.0             0.0           0;  % 7 pv
% 	2	0	0	3	0.0             0.0           0;  % 8 baterai
%     2	0	0	3	0.0945*10^6     3*10^3        1.71;  % 9 diesel ////////////
% 	2	0	0	3	0.0915*10^6     1.2*10^3      1.45;  % 10 diesel////////////
% 	2	0	0	3	0.0             0.0           0;  % 11 baterai
% 	2	0	0	3	0.0             0.0           0;  % 12 PV
% 	2	0	0	3	0.049*10^6      0.08*10^3     1.2;  % 13 mikroturbin
% % 	2	0	0	3	0.0             0.0           0;  % 14 baterai  
% ]; 

